output/1_3PAS_1/Cargas_BT_DU10_1_3PAS_1.dss
New "Load.BT_2806086_M1" bus1="UC2806086.1.4" phases=1 conn=Wye model=2 kv=0.220 kw = 0.0115935 pf=0.92 status=variable vmaxpu=1.5 vminpu=0.92 daily="RU2_DU" 
New "Load.BT_2806086_M2" bus1="UC2806086.1.4" phases=1 conn=Wye model=3 kv=0.220 kw = 0.0115935 pf=0.92 status=variable vmaxpu=1.5 vminpu=0.92 daily="RU2_DU"
 !28_2303
New "Load.BT_2805327_M1" bus1="UC2805327.1.4" phases=1 conn=Wye model=2 kv=0.220 kw = 0.2521053 pf=0.92 status=variable vmaxpu=1.5 vminpu=0.92 daily="RU5_DU" 
New "Load.BT_2805327_M2" bus1="UC2805327.1.4" phases=1 conn=Wye model=3 kv=0.220 kw = 0.2521053 pf=0.92 status=variable vmaxpu=1.5 vminpu=0.92 daily="RU5_DU"
 !28_6155
New "Load.BT_2830102_M1" bus1="UC2830102.1.4" phases=1 conn=Wye model=2 kv=0.220 kw = 0.1789510 pf=0.92 status=variable vmaxpu=1.5 vminpu=0.92 daily="RU4_DU" 
New "Load.BT_2830102_M2" bus1="UC2830102.1.4" phases=1 conn=Wye model=3 kv=0.220 kw = 0.1789510 pf=0.92 status=variable vmaxpu=1.5 vminpu=0.92 daily="RU4_DU"
 !2_1997
New "Load.BT_2836303_M1" bus1="UC2836303.1.4" phases=1 conn=Wye model=2 kv=0.220 kw = 0.2440674 pf=0.92 status=variable vmaxpu=1.5 vminpu=0.92 daily="RU6_DU" 
New "Load.BT_2836303_M2" bus1="UC2836303.1.4" phases=1 conn=Wye model=3 kv=0.220 kw = 0.2440674 pf=0.92 status=variable vmaxpu=1.5 vminpu=0.92 daily="RU6_DU"
 !28_700
New "Load.BT_2834139_M1" bus1="UC2834139.1.2.4" phases=1 conn=Delta model=2 kv=0.440 kw = 0.5206565 pf=0.92 status=variable vmaxpu=1.5 vminpu=0.92 daily="RU1_DU" 
New "Load.BT_2834139_M2" bus1="UC2834139.1.2.4" phases=1 conn=Delta model=3 kv=0.440 kw = 0.5206565 pf=0.92 status=variable vmaxpu=1.5 vminpu=0.92 daily="RU1_DU"
 !28_5321
New "Load.BT_2805332_M1" bus1="UC2805332.1.2.4" phases=1 conn=Delta model=2 kv=0.440 kw = 0.2803937 pf=0.92 status=variable vmaxpu=1.5 vminpu=0.92 daily="RU6_DU" 
New "Load.BT_2805332_M2" bus1="UC2805332.1.2.4" phases=1 conn=Delta model=3 kv=0.440 kw = 0.2803937 pf=0.92 status=variable vmaxpu=1.5 vminpu=0.92 daily="RU6_DU"
 !28_4048
New "Load.BT_2807373_M1" bus1="UC2807373.2.4" phases=1 conn=Wye model=2 kv=0.220 kw = 0.1848831 pf=0.92 status=variable vmaxpu=1.5 vminpu=0.92 daily="RU4_DU" 
New "Load.BT_2807373_M2" bus1="UC2807373.2.4" phases=1 conn=Wye model=3 kv=0.220 kw = 0.1848831 pf=0.92 status=variable vmaxpu=1.5 vminpu=0.92 daily="RU4_DU"
 !28_4801
New "Load.BT_2818343_M1" bus1="UC2818343.2.4" phases=1 conn=Wye model=2 kv=0.219 kw = 0.1160497 pf=0.92 status=variable vmaxpu=1.5 vminpu=0.92 daily="RU7_DU" 
New "Load.BT_2818343_M2" bus1="UC2818343.2.4" phases=1 conn=Wye model=3 kv=0.219 kw = 0.1160497 pf=0.92 status=variable vmaxpu=1.5 vminpu=0.92 daily="RU7_DU"
 !28_626
New "Load.BT_2805262_M1" bus1="UC2805262.1.4" phases=1 conn=Wye model=2 kv=0.220 kw = 0.0284236 pf=0.92 status=variable vmaxpu=1.5 vminpu=0.92 daily="RU5_DU" 
New "Load.BT_2805262_M2" bus1="UC2805262.1.4" phases=1 conn=Wye model=3 kv=0.220 kw = 0.0284236 pf=0.92 status=variable vmaxpu=1.5 vminpu=0.92 daily="RU5_DU"
 !28_2790
New "Load.BT_2826215_M1" bus1="UC2826215.1.4" phases=1 conn=Wye model=2 kv=0.219 kw = 0.2901243 pf=0.92 status=variable vmaxpu=1.5 vminpu=0.92 daily="RU7_DU" 
New "Load.BT_2826215_M2" bus1="UC2826215.1.4" phases=1 conn=Wye model=3 kv=0.219 kw = 0.2901243 pf=0.92 status=variable vmaxpu=1.5 vminpu=0.92 daily="RU7_DU"
 !28_640
New "Load.BT_2805278_M1" bus1="UC2805278.2.4" phases=1 conn=Wye model=2 kv=0.220 kw = 0.3581394 pf=0.92 status=variable vmaxpu=1.5 vminpu=0.92 daily="RU1_DU" 
New "Load.BT_2805278_M2" bus1="UC2805278.2.4" phases=1 conn=Wye model=3 kv=0.220 kw = 0.3581394 pf=0.92 status=variable vmaxpu=1.5 vminpu=0.92 daily="RU1_DU"
 !28_3058
New "Load.BT_2817035_M1" bus1="UC2817035.2.4" phases=1 conn=Wye model=2 kv=0.220 kw = 0.1956224 pf=0.92 status=variable vmaxpu=1.5 vminpu=0.92 daily="RU1_DU" 
New "Load.BT_2817035_M2" bus1="UC2817035.2.4" phases=1 conn=Wye model=3 kv=0.220 kw = 0.1956224 pf=0.92 status=variable vmaxpu=1.5 vminpu=0.92 daily="RU1_DU"
 !28_6069
New "Load.BT_2818350_M1" bus1="UC2818350.1.2.3.4" phases=3 conn=Delta model=2 kv=0.380 kw = 5.0190313 pf=0.92 status=variable vmaxpu=1.5 vminpu=0.92 daily="RE8_DU" 
New "Load.BT_2818350_M2" bus1="UC2818350.1.2.3.4" phases=3 conn=Delta model=3 kv=0.380 kw = 5.0190313 pf=0.92 status=variable vmaxpu=1.5 vminpu=0.92 daily="RE8_DU"
 !28_1990
New "Load.BT_2805378_M1" bus1="UC2805378.1.4" phases=1 conn=Wye model=2 kv=0.220 kw = 0.1963891 pf=0.92 status=variable vmaxpu=1.5 vminpu=0.92 daily="RU6_DU" 
New "Load.BT_2805378_M2" bus1="UC2805378.1.4" phases=1 conn=Wye model=3 kv=0.220 kw = 0.1963891 pf=0.92 status=variable vmaxpu=1.5 vminpu=0.92 daily="RU6_DU"
 !28_2793
New "Load.BT_2805372_M1" bus1="UC2805372.2.4" phases=1 conn=Wye model=2 kv=0.220 kw = 0.1044382 pf=0.92 status=variable vmaxpu=1.5 vminpu=0.92 daily="RU6_DU" 
New "Load.BT_2805372_M2" bus1="UC2805372.2.4" phases=1 conn=Wye model=3 kv=0.220 kw = 0.1044382 pf=0.92 status=variable vmaxpu=1.5 vminpu=0.92 daily="RU6_DU"
 !28_699
New "Load.BT_2805353_M1" bus1="UC2805353.1.4" phases=1 conn=Wye model=2 kv=0.220 kw = 0.1535241 pf=0.92 status=variable vmaxpu=1.5 vminpu=0.92 daily="RU7_DU" 
New "Load.BT_2805353_M2" bus1="UC2805353.1.4" phases=1 conn=Wye model=3 kv=0.220 kw = 0.1535241 pf=0.92 status=variable vmaxpu=1.5 vminpu=0.92 daily="RU7_DU"
 !28_198
New "Load.BT_2805390_M1" bus1="UC2805390.1.2.4" phases=1 conn=Delta model=2 kv=0.440 kw = 0.2281747 pf=0.92 status=variable vmaxpu=1.5 vminpu=0.92 daily="RU6_DU" 
New "Load.BT_2805390_M2" bus1="UC2805390.1.2.4" phases=1 conn=Delta model=3 kv=0.440 kw = 0.2281747 pf=0.92 status=variable vmaxpu=1.5 vminpu=0.92 daily="RU6_DU"
 !28_1120
New "Load.BT_2806072_M1" bus1="UC2806072.1.4" phases=1 conn=Wye model=2 kv=0.220 kw = 0.0815635 pf=0.92 status=variable vmaxpu=1.5 vminpu=0.92 daily="RU5_DU" 
New "Load.BT_2806072_M2" bus1="UC2806072.1.4" phases=1 conn=Wye model=3 kv=0.220 kw = 0.0815635 pf=0.92 status=variable vmaxpu=1.5 vminpu=0.92 daily="RU5_DU"
 !28_2943
New "Load.BT_2819400_M1" bus1="UC2819400.2.4" phases=1 conn=Wye model=2 kv=0.220 kw = 0.1989655 pf=0.92 status=variable vmaxpu=1.5 vminpu=0.92 daily="RU5_DU" 
New "Load.BT_2819400_M2" bus1="UC2819400.2.4" phases=1 conn=Wye model=3 kv=0.220 kw = 0.1989655 pf=0.92 status=variable vmaxpu=1.5 vminpu=0.92 daily="RU5_DU"
 !28_630
New "Load.BT_2805341_M1" bus1="UC2805341.1.2.4" phases=1 conn=Delta model=2 kv=0.440 kw = 0.2681709 pf=0.92 status=variable vmaxpu=1.5 vminpu=0.92 daily="RU5_DU" 
New "Load.BT_2805341_M2" bus1="UC2805341.1.2.4" phases=1 conn=Delta model=3 kv=0.440 kw = 0.2681709 pf=0.92 status=variable vmaxpu=1.5 vminpu=0.92 daily="RU5_DU"
 !28_655
New "Load.BT_2805345_M1" bus1="UC2805345.1.4" phases=1 conn=Wye model=2 kv=0.220 kw = 0.2708982 pf=0.92 status=variable vmaxpu=1.5 vminpu=0.92 daily="RU4_DU" 
New "Load.BT_2805345_M2" bus1="UC2805345.1.4" phases=1 conn=Wye model=3 kv=0.220 kw = 0.2708982 pf=0.92 status=variable vmaxpu=1.5 vminpu=0.92 daily="RU4_DU"
 !28_654
New "Load.BT_2805244_M1" bus1="UC2805244.1.2.4" phases=1 conn=Delta model=2 kv=0.440 kw = 1.3558136 pf=0.92 status=variable vmaxpu=1.5 vminpu=0.92 daily="RU1_DU" 
New "Load.BT_2805244_M2" bus1="UC2805244.1.2.4" phases=1 conn=Delta model=3 kv=0.440 kw = 1.3558136 pf=0.92 status=variable vmaxpu=1.5 vminpu=0.92 daily="RU1_DU"
 !28_3024
New "Load.BT_2805410_M1" bus1="UC2805410.2.4" phases=1 conn=Wye model=2 kv=0.220 kw = 0.1850889 pf=0.92 status=variable vmaxpu=1.5 vminpu=0.92 daily="RU1_DU" 
New "Load.BT_2805410_M2" bus1="UC2805410.2.4" phases=1 conn=Wye model=3 kv=0.220 kw = 0.1850889 pf=0.92 status=variable vmaxpu=1.5 vminpu=0.92 daily="RU1_DU"
 !28_2304
New "Load.BT_2805776_M1" bus1="UC2805776.2.4" phases=1 conn=Wye model=2 kv=0.220 kw = 0.0560351 pf=0.92 status=variable vmaxpu=1.5 vminpu=0.92 daily="RU2_DU" 
New "Load.BT_2805776_M2" bus1="UC2805776.2.4" phases=1 conn=Wye model=3 kv=0.220 kw = 0.0560351 pf=0.92 status=variable vmaxpu=1.5 vminpu=0.92 daily="RU2_DU"
 !28_700
New "Load.BT_2805421_M1" bus1="UC2805421.1.4" phases=1 conn=Wye model=2 kv=0.219 kw = 0.4671363 pf=0.92 status=variable vmaxpu=1.5 vminpu=0.92 daily="RU5_DU" 
New "Load.BT_2805421_M2" bus1="UC2805421.1.4" phases=1 conn=Wye model=3 kv=0.219 kw = 0.4671363 pf=0.92 status=variable vmaxpu=1.5 vminpu=0.92 daily="RU5_DU"
 !28_694
New "Load.BT_2805426_M1" bus1="UC2805426.1.4" phases=1 conn=Wye model=2 kv=0.219 kw = 0.0689045 pf=0.92 status=variable vmaxpu=1.5 vminpu=0.92 daily="RU7_DU" 
New "Load.BT_2805426_M2" bus1="UC2805426.1.4" phases=1 conn=Wye model=3 kv=0.219 kw = 0.0689045 pf=0.92 status=variable vmaxpu=1.5 vminpu=0.92 daily="RU7_DU"
 !28_694
New "Load.BT_2805220_M1" bus1="UC2805220.2.4" phases=1 conn=Wye model=2 kv=0.220 kw = 0.2310965 pf=0.92 status=variable vmaxpu=1.5 vminpu=0.92 daily="RU5_DU" 
New "Load.BT_2805220_M2" bus1="UC2805220.2.4" phases=1 conn=Wye model=3 kv=0.220 kw = 0.2310965 pf=0.92 status=variable vmaxpu=1.5 vminpu=0.92 daily="RU5_DU"
 !28_1044
New "Load.BT_2805266_M1" bus1="UC2805266.1.2.3.4" phases=3 conn=Delta model=2 kv=0.380 kw = 0.5165687 pf=0.92 status=variable vmaxpu=1.5 vminpu=0.92 daily="RU5_DU" 
New "Load.BT_2805266_M2" bus1="UC2805266.1.2.3.4" phases=3 conn=Delta model=3 kv=0.380 kw = 0.5165687 pf=0.92 status=variable vmaxpu=1.5 vminpu=0.92 daily="RU5_DU"
 !28_640
New "Load.BT_2817049_M1" bus1="UC2817049.3.4" phases=1 conn=Wye model=2 kv=0.219 kw = 0.0561764 pf=0.92 status=variable vmaxpu=1.5 vminpu=0.92 daily="RU8_DU" 
New "Load.BT_2817049_M2" bus1="UC2817049.3.4" phases=1 conn=Wye model=3 kv=0.219 kw = 0.0561764 pf=0.92 status=variable vmaxpu=1.5 vminpu=0.92 daily="RU8_DU"
 !28_1990
New "Load.BT_2805218_M1" bus1="UC2805218.1.2.4" phases=1 conn=Delta model=2 kv=0.440 kw = 0.2332462 pf=0.92 status=variable vmaxpu=1.5 vminpu=0.92 daily="RU3_DU" 
New "Load.BT_2805218_M2" bus1="UC2805218.1.2.4" phases=1 conn=Delta model=3 kv=0.440 kw = 0.2332462 pf=0.92 status=variable vmaxpu=1.5 vminpu=0.92 daily="RU3_DU"
 !28_1829
New "Load.BT_2826225_M1" bus1="UC2826225.1.2.3.4" phases=3 conn=Delta model=2 kv=0.380 kw = 0.1015435 pf=0.92 status=variable vmaxpu=1.5 vminpu=0.92 daily="RU7_DU" 
New "Load.BT_2826225_M2" bus1="UC2826225.1.2.3.4" phases=3 conn=Delta model=3 kv=0.380 kw = 0.1015435 pf=0.92 status=variable vmaxpu=1.5 vminpu=0.92 daily="RU7_DU"
 !28_694
New "Load.BT_2817022_M1" bus1="UC2817022.2.4" phases=1 conn=Wye model=2 kv=0.219 kw = 0.2917381 pf=0.92 status=variable vmaxpu=1.5 vminpu=0.92 daily="RE6_DU" 
New "Load.BT_2817022_M2" bus1="UC2817022.2.4" phases=1 conn=Wye model=3 kv=0.219 kw = 0.2917381 pf=0.92 status=variable vmaxpu=1.5 vminpu=0.92 daily="RE6_DU"
 !28_1990
New "Load.BT_2832901_M1" bus1="UC2832901.1.4" phases=1 conn=Wye model=2 kv=0.220 kw = 0.0010173 pf=0.92 status=variable vmaxpu=1.5 vminpu=0.92 daily="CO6_DU" 
New "Load.BT_2832901_M2" bus1="UC2832901.1.4" phases=1 conn=Wye model=3 kv=0.220 kw = 0.0010173 pf=0.92 status=variable vmaxpu=1.5 vminpu=0.92 daily="CO6_DU"
 !28_4805
New "Load.BT_2838192_M1" bus1="UC2838192.1.4" phases=1 conn=Wye model=2 kv=0.219 kw = 0.1218924 pf=0.92 status=variable vmaxpu=1.5 vminpu=0.92 daily="RE5_DU" 
New "Load.BT_2838192_M2" bus1="UC2838192.1.4" phases=1 conn=Wye model=3 kv=0.219 kw = 0.1218924 pf=0.92 status=variable vmaxpu=1.5 vminpu=0.92 daily="RE5_DU"
 !28_1990
New "Load.BT_2806076_M1" bus1="UC2806076.2.4" phases=1 conn=Wye model=2 kv=0.220 kw = 0.4978241 pf=0.92 status=variable vmaxpu=1.5 vminpu=0.92 daily="RU3_DU" 
New "Load.BT_2806076_M2" bus1="UC2806076.2.4" phases=1 conn=Wye model=3 kv=0.220 kw = 0.4978241 pf=0.92 status=variable vmaxpu=1.5 vminpu=0.92 daily="RU3_DU"
 !28_2303
New "Load.BT_2805391_M1" bus1="UC2805391.1.4" phases=1 conn=Wye model=2 kv=0.220 kw = 0.2994527 pf=0.92 status=variable vmaxpu=1.5 vminpu=0.92 daily="RU1_DU" 
New "Load.BT_2805391_M2" bus1="UC2805391.1.4" phases=1 conn=Wye model=3 kv=0.220 kw = 0.2994527 pf=0.92 status=variable vmaxpu=1.5 vminpu=0.92 daily="RU1_DU"
 !28_700
New "Load.BT_2805329_M1" bus1="UC2805329.1.4" phases=1 conn=Wye model=2 kv=0.220 kw = 0.2758530 pf=0.92 status=variable vmaxpu=1.5 vminpu=0.92 daily="RU6_DU" 
New "Load.BT_2805329_M2" bus1="UC2805329.1.4" phases=1 conn=Wye model=3 kv=0.220 kw = 0.2758530 pf=0.92 status=variable vmaxpu=1.5 vminpu=0.92 daily="RU6_DU"
 !28_2943
New "Load.BT_2834953_M1" bus1="UC2834953.3.4" phases=1 conn=Wye model=2 kv=0.219 kw = 0.3716825 pf=0.92 status=variable vmaxpu=1.5 vminpu=0.92 daily="RU1_DU" 
New "Load.BT_2834953_M2" bus1="UC2834953.3.4" phases=1 conn=Wye model=3 kv=0.219 kw = 0.3716825 pf=0.92 status=variable vmaxpu=1.5 vminpu=0.92 daily="RU1_DU"
 !28_4437
New "Load.BT_2831809_M1" bus1="UC2831809.1.2.3.4" phases=3 conn=Delta model=2 kv=0.380 kw = 2.5911362 pf=0.92 status=variable vmaxpu=1.5 vminpu=0.92 daily="RU8_DU" 
New "Load.BT_2831809_M2" bus1="UC2831809.1.2.3.4" phases=3 conn=Delta model=3 kv=0.380 kw = 2.5911362 pf=0.92 status=variable vmaxpu=1.5 vminpu=0.92 daily="RU8_DU"
 !28_640
New "Load.BT_2805792_M1" bus1="UC2805792.1.4" phases=1 conn=Wye model=2 kv=0.219 kw = 0.0309159 pf=0.92 status=variable vmaxpu=1.5 vminpu=0.92 daily="RU2_DU" 
New "Load.BT_2805792_M2" bus1="UC2805792.1.4" phases=1 conn=Wye model=3 kv=0.219 kw = 0.0309159 pf=0.92 status=variable vmaxpu=1.5 vminpu=0.92 daily="RU2_DU"
 !28_5168
New "Load.BT_2805230_M1" bus1="UC2805230.2.4" phases=1 conn=Wye model=2 kv=0.220 kw = 0.3188205 pf=0.92 status=variable vmaxpu=1.5 vminpu=0.92 daily="RU2_DU" 
New "Load.BT_2805230_M2" bus1="UC2805230.2.4" phases=1 conn=Wye model=3 kv=0.220 kw = 0.3188205 pf=0.92 status=variable vmaxpu=1.5 vminpu=0.92 daily="RU2_DU"
 !28_778
New "Load.BT_2821681_M1" bus1="UC2821681.1.4" phases=1 conn=Wye model=2 kv=0.219 kw = 0.2454307 pf=0.92 status=variable vmaxpu=1.5 vminpu=0.92 daily="RU3_DU" 
New "Load.BT_2821681_M2" bus1="UC2821681.1.4" phases=1 conn=Wye model=3 kv=0.219 kw = 0.2454307 pf=0.92 status=variable vmaxpu=1.5 vminpu=0.92 daily="RU3_DU"
 !28_694
New "Load.BT_2818310_M1" bus1="UC2818310.1.4" phases=1 conn=Wye model=2 kv=0.220 kw = 0.2768270 pf=0.92 status=variable vmaxpu=1.5 vminpu=0.92 daily="RU7_DU" 
New "Load.BT_2818310_M2" bus1="UC2818310.1.4" phases=1 conn=Wye model=3 kv=0.220 kw = 0.2768270 pf=0.92 status=variable vmaxpu=1.5 vminpu=0.92 daily="RU7_DU"
 !28_2283
New "Load.BT_2837351_M1" bus1="UC2837351.1.2.3.4" phases=3 conn=Delta model=2 kv=0.380 kw = 0.5894816 pf=0.92 status=variable vmaxpu=1.5 vminpu=0.92 daily="RU5_DU" 
New "Load.BT_2837351_M2" bus1="UC2837351.1.2.3.4" phases=3 conn=Delta model=3 kv=0.380 kw = 0.5894816 pf=0.92 status=variable vmaxpu=1.5 vminpu=0.92 daily="RU5_DU"
 !28_6216
New "Load.BT_2828396_M1" bus1="UC2828396.1.4" phases=1 conn=Wye model=2 kv=0.220 kw = 0.3574654 pf=0.92 status=variable vmaxpu=1.5 vminpu=0.92 daily="RU2_DU" 
New "Load.BT_2828396_M2" bus1="UC2828396.1.4" phases=1 conn=Wye model=3 kv=0.220 kw = 0.3574654 pf=0.92 status=variable vmaxpu=1.5 vminpu=0.92 daily="RU2_DU"
 !28_6155
New "Load.BT_2825299_M1" bus1="UC2825299.1.4" phases=1 conn=Wye model=2 kv=0.220 kw = 0.4746905 pf=0.92 status=variable vmaxpu=1.5 vminpu=0.92 daily="RU8_DU" 
New "Load.BT_2825299_M2" bus1="UC2825299.1.4" phases=1 conn=Wye model=3 kv=0.220 kw = 0.4746905 pf=0.92 status=variable vmaxpu=1.5 vminpu=0.92 daily="RU8_DU"
 !28_3367
New "Load.BT_2819372_M1" bus1="UC2819372.2.4" phases=1 conn=Wye model=2 kv=0.220 kw = 0.4690729 pf=0.92 status=variable vmaxpu=1.5 vminpu=0.92 daily="RU8_DU" 
New "Load.BT_2819372_M2" bus1="UC2819372.2.4" phases=1 conn=Wye model=3 kv=0.220 kw = 0.4690729 pf=0.92 status=variable vmaxpu=1.5 vminpu=0.92 daily="RU8_DU"
 !28_4047
New "Load.BT_2820643_M1" bus1="UC2820643.2.4" phases=1 conn=Wye model=2 kv=0.220 kw = 0.1878432 pf=0.92 status=variable vmaxpu=1.5 vminpu=0.92 daily="RU5_DU" 
New "Load.BT_2820643_M2" bus1="UC2820643.2.4" phases=1 conn=Wye model=3 kv=0.220 kw = 0.1878432 pf=0.92 status=variable vmaxpu=1.5 vminpu=0.92 daily="RU5_DU"
 !28_4805
New "Load.BT_2805351_M1" bus1="UC2805351.1.4" phases=1 conn=Wye model=2 kv=0.220 kw = 0.6670947 pf=0.92 status=variable vmaxpu=1.5 vminpu=0.92 daily="RU8_DU" 
New "Load.BT_2805351_M2" bus1="UC2805351.1.4" phases=1 conn=Wye model=3 kv=0.220 kw = 0.6670947 pf=0.92 status=variable vmaxpu=1.5 vminpu=0.92 daily="RU8_DU"
 !28_4271
New "Load.BT_2818334_M1" bus1="UC2818334.1.2.3.4" phases=3 conn=Delta model=2 kv=0.380 kw = 0.7095957 pf=0.92 status=variable vmaxpu=1.5 vminpu=0.92 daily="RU7_DU" 
New "Load.BT_2818334_M2" bus1="UC2818334.1.2.3.4" phases=3 conn=Delta model=3 kv=0.380 kw = 0.7095957 pf=0.92 status=variable vmaxpu=1.5 vminpu=0.92 daily="RU7_DU"
 !28_2706
New "Load.BT_2819397_M1" bus1="UC2819397.1.4" phases=1 conn=Wye model=2 kv=0.219 kw = 0.9022548 pf=0.92 status=variable vmaxpu=1.5 vminpu=0.92 daily="RE5_DU" 
New "Load.BT_2819397_M2" bus1="UC2819397.1.4" phases=1 conn=Wye model=3 kv=0.219 kw = 0.9022548 pf=0.92 status=variable vmaxpu=1.5 vminpu=0.92 daily="RE5_DU"
 !28_1990
New "Load.BT_2818317_M1" bus1="UC2818317.1.2.4" phases=1 conn=Delta model=2 kv=0.440 kw = 0.2872049 pf=0.92 status=variable vmaxpu=1.5 vminpu=0.92 daily="RU6_DU" 
New "Load.BT_2818317_M2" bus1="UC2818317.1.2.4" phases=1 conn=Delta model=3 kv=0.440 kw = 0.2872049 pf=0.92 status=variable vmaxpu=1.5 vminpu=0.92 daily="RU6_DU"
 !28_633
New "Load.BT_2836678_M1" bus1="UC2836678.2.4" phases=1 conn=Wye model=2 kv=0.220 kw = 0.2046567 pf=0.92 status=variable vmaxpu=1.5 vminpu=0.92 daily="RU4_DU" 
New "Load.BT_2836678_M2" bus1="UC2836678.2.4" phases=1 conn=Wye model=3 kv=0.220 kw = 0.2046567 pf=0.92 status=variable vmaxpu=1.5 vminpu=0.92 daily="RU4_DU"
 !28_5017
New "Load.BT_2805228_M1" bus1="UC2805228.1.4" phases=1 conn=Wye model=2 kv=0.220 kw = 0.7361855 pf=0.92 status=variable vmaxpu=1.5 vminpu=0.92 daily="RU2_DU" 
New "Load.BT_2805228_M2" bus1="UC2805228.1.4" phases=1 conn=Wye model=3 kv=0.220 kw = 0.7361855 pf=0.92 status=variable vmaxpu=1.5 vminpu=0.92 daily="RU2_DU"
 !28_778
New "Load.BT_2805232_M1" bus1="UC2805232.1.2.3.4" phases=3 conn=Delta model=2 kv=0.380 kw = 1.1862812 pf=0.92 status=variable vmaxpu=1.5 vminpu=0.92 daily="RU6_DU" 
New "Load.BT_2805232_M2" bus1="UC2805232.1.2.3.4" phases=3 conn=Delta model=3 kv=0.380 kw = 1.1862812 pf=0.92 status=variable vmaxpu=1.5 vminpu=0.92 daily="RU6_DU"
 !28_6095
New "Load.BT_2838196_M1" bus1="UC2838196.1.4" phases=1 conn=Wye model=2 kv=0.219 kw = 0.0568031 pf=0.92 status=variable vmaxpu=1.5 vminpu=0.92 daily="RE4_DU" 
New "Load.BT_2838196_M2" bus1="UC2838196.1.4" phases=1 conn=Wye model=3 kv=0.219 kw = 0.0568031 pf=0.92 status=variable vmaxpu=1.5 vminpu=0.92 daily="RE4_DU"
 !28_1990
New "Load.BT_2805241_M1" bus1="UC2805241.1.4" phases=1 conn=Wye model=2 kv=0.219 kw = 0.3341737 pf=0.92 status=variable vmaxpu=1.5 vminpu=0.92 daily="RU4_DU" 
New "Load.BT_2805241_M2" bus1="UC2805241.1.4" phases=1 conn=Wye model=3 kv=0.219 kw = 0.3341737 pf=0.92 status=variable vmaxpu=1.5 vminpu=0.92 daily="RU4_DU"
 !28_5513
New "Load.BT_2818345_M1" bus1="UC2818345.1.4" phases=1 conn=Wye model=2 kv=0.220 kw = 0.0787776 pf=0.92 status=variable vmaxpu=1.5 vminpu=0.92 daily="RE1_DU" 
New "Load.BT_2818345_M2" bus1="UC2818345.1.4" phases=1 conn=Wye model=3 kv=0.220 kw = 0.0787776 pf=0.92 status=variable vmaxpu=1.5 vminpu=0.92 daily="RE1_DU"
 !28_1993
New "Load.BT_2836301_M1" bus1="UC2836301.1.2.4" phases=1 conn=Delta model=2 kv=0.380 kw = 0.3637422 pf=0.92 status=variable vmaxpu=1.5 vminpu=0.92 daily="RU8_DU" 
New "Load.BT_2836301_M2" bus1="UC2836301.1.2.4" phases=1 conn=Delta model=3 kv=0.380 kw = 0.3637422 pf=0.92 status=variable vmaxpu=1.5 vminpu=0.92 daily="RU8_DU"
 !28_5819
New "Load.BT_2805229_M1" bus1="UC2805229.2.4" phases=1 conn=Wye model=2 kv=0.220 kw = 0.4985193 pf=0.92 status=variable vmaxpu=1.5 vminpu=0.92 daily="RU2_DU" 
New "Load.BT_2805229_M2" bus1="UC2805229.2.4" phases=1 conn=Wye model=3 kv=0.220 kw = 0.4985193 pf=0.92 status=variable vmaxpu=1.5 vminpu=0.92 daily="RU2_DU"
 !2_1992
New "Load.BT_2805294_M1" bus1="UC2805294.1.2.4" phases=1 conn=Delta model=2 kv=0.440 kw = 0.2749725 pf=0.92 status=variable vmaxpu=1.5 vminpu=0.92 daily="CO2_DU" 
New "Load.BT_2805294_M2" bus1="UC2805294.1.2.4" phases=1 conn=Delta model=3 kv=0.440 kw = 0.2749725 pf=0.92 status=variable vmaxpu=1.5 vminpu=0.92 daily="CO2_DU"
 !28_632
New "Load.BT_2805281_M1" bus1="UC2805281.1.2.4" phases=1 conn=Delta model=2 kv=0.440 kw = 0.1702796 pf=0.92 status=variable vmaxpu=1.5 vminpu=0.92 daily="RU6_DU" 
New "Load.BT_2805281_M2" bus1="UC2805281.1.2.4" phases=1 conn=Delta model=3 kv=0.440 kw = 0.1702796 pf=0.92 status=variable vmaxpu=1.5 vminpu=0.92 daily="RU6_DU"
 !28_633
New "Load.BT_2837357_M1" bus1="UC2837357.1.4" phases=1 conn=Wye model=2 kv=0.220 kw = 0.0192984 pf=0.92 status=variable vmaxpu=1.5 vminpu=0.92 daily="RU6_DU" 
New "Load.BT_2837357_M2" bus1="UC2837357.1.4" phases=1 conn=Wye model=3 kv=0.220 kw = 0.0192984 pf=0.92 status=variable vmaxpu=1.5 vminpu=0.92 daily="RU6_DU"
 !28_4047
New "Load.BT_2805430_M1" bus1="UC2805430.2.4" phases=1 conn=Wye model=2 kv=0.220 kw = 0.1819170 pf=0.92 status=variable vmaxpu=1.5 vminpu=0.92 daily="RU4_DU" 
New "Load.BT_2805430_M2" bus1="UC2805430.2.4" phases=1 conn=Wye model=3 kv=0.220 kw = 0.1819170 pf=0.92 status=variable vmaxpu=1.5 vminpu=0.92 daily="RU4_DU"
 !28_1474
New "Load.BT_2825298_M1" bus1="UC2825298.2.4" phases=1 conn=Wye model=2 kv=0.220 kw = 0.1038113 pf=0.92 status=variable vmaxpu=1.5 vminpu=0.92 daily="RU4_DU" 
New "Load.BT_2825298_M2" bus1="UC2825298.2.4" phases=1 conn=Wye model=3 kv=0.220 kw = 0.1038113 pf=0.92 status=variable vmaxpu=1.5 vminpu=0.92 daily="RU4_DU"
 !28_2316
New "Load.BT_2825849_M1" bus1="UC2825849.1.4" phases=1 conn=Wye model=2 kv=0.219 kw = 0.1131017 pf=0.92 status=variable vmaxpu=1.5 vminpu=0.92 daily="RE3_DU" 
New "Load.BT_2825849_M2" bus1="UC2825849.1.4" phases=1 conn=Wye model=3 kv=0.219 kw = 0.1131017 pf=0.92 status=variable vmaxpu=1.5 vminpu=0.92 daily="RE3_DU"
 !28_1990
New "Load.BT_2821694_M1" bus1="UC2821694.1.4" phases=1 conn=Wye model=2 kv=0.220 kw = 0.9172395 pf=0.92 status=variable vmaxpu=1.5 vminpu=0.92 daily="RU6_DU" 
New "Load.BT_2821694_M2" bus1="UC2821694.1.4" phases=1 conn=Wye model=3 kv=0.220 kw = 0.9172395 pf=0.92 status=variable vmaxpu=1.5 vminpu=0.92 daily="RU6_DU"
 !28_3780
New "Load.BT_2818331_M1" bus1="UC2818331.1.4" phases=1 conn=Wye model=2 kv=0.219 kw = 0.1183638 pf=0.92 status=variable vmaxpu=1.5 vminpu=0.92 daily="RU3_DU" 
New "Load.BT_2818331_M2" bus1="UC2818331.1.4" phases=1 conn=Wye model=3 kv=0.219 kw = 0.1183638 pf=0.92 status=variable vmaxpu=1.5 vminpu=0.92 daily="RU3_DU"
 !28_1990
New "Load.BT_2825862_M1" bus1="UC2825862.1.2.4" phases=1 conn=Delta model=2 kv=0.440 kw = 0.1148409 pf=0.92 status=variable vmaxpu=1.5 vminpu=0.92 daily="RU7_DU" 
New "Load.BT_2825862_M2" bus1="UC2825862.1.2.4" phases=1 conn=Delta model=3 kv=0.440 kw = 0.1148409 pf=0.92 status=variable vmaxpu=1.5 vminpu=0.92 daily="RU7_DU"
 !28_4958
New "Load.BT_2805207_M1" bus1="UC2805207.1.4" phases=1 conn=Wye model=2 kv=0.220 kw = 0.0626632 pf=0.92 status=variable vmaxpu=1.5 vminpu=0.92 daily="RU3_DU" 
New "Load.BT_2805207_M2" bus1="UC2805207.1.4" phases=1 conn=Wye model=3 kv=0.220 kw = 0.0626632 pf=0.92 status=variable vmaxpu=1.5 vminpu=0.92 daily="RU3_DU"
 !28_4504
New "Load.BT_2805369_M1" bus1="UC2805369.2.4" phases=1 conn=Wye model=2 kv=0.220 kw = 0.3632621 pf=0.92 status=variable vmaxpu=1.5 vminpu=0.92 daily="RU2_DU" 
New "Load.BT_2805369_M2" bus1="UC2805369.2.4" phases=1 conn=Wye model=3 kv=0.220 kw = 0.3632621 pf=0.92 status=variable vmaxpu=1.5 vminpu=0.92 daily="RU2_DU"
 !28_1932
New "Load.BT_2805306_M1" bus1="UC2805306.1.2.4" phases=1 conn=Delta model=2 kv=0.440 kw = 0.3611490 pf=0.92 status=variable vmaxpu=1.5 vminpu=0.92 daily="RU1_DU" 
New "Load.BT_2805306_M2" bus1="UC2805306.1.2.4" phases=1 conn=Delta model=3 kv=0.440 kw = 0.3611490 pf=0.92 status=variable vmaxpu=1.5 vminpu=0.92 daily="RU1_DU"
 !28_633

New "Load.BT_2836487_M1" bus1="UC2836487.2.4" phases=1 conn=Wye model=2 kv=0.219 kw = 0.1266064 pf=0.92 status=variable vmaxpu=1.5 vminpu=0.92 daily="RE3_DU" 
New "Load.BT_2836487_M2" bus1="UC2836487.2.4" phases=1 conn=Wye model=3 kv=0.219 kw = 0.1266064 pf=0.92 status=variable vmaxpu=1.5 vminpu=0.92 daily="RE3_DU"
 !28_3960
New "Load.BT_2805295_M1" bus1="UC2805295.2.4" phases=1 conn=Wye model=2 kv=0.219 kw = 0.2280243 pf=0.92 status=variable vmaxpu=1.5 vminpu=0.92 daily="RU3_DU" 
New "Load.BT_2805295_M2" bus1="UC2805295.2.4" phases=1 conn=Wye model=3 kv=0.219 kw = 0.2280243 pf=0.92 status=variable vmaxpu=1.5 vminpu=0.92 daily="RU3_DU"
 !28_2706
New "Load.BT_2805260_M1" bus1="UC2805260.1.2.4" phases=1 conn=Delta model=2 kv=0.440 kw = 0.8830361 pf=0.92 status=variable vmaxpu=1.5 vminpu=0.92 daily="RU2_DU" 
New "Load.BT_2805260_M2" bus1="UC2805260.1.2.4" phases=1 conn=Delta model=3 kv=0.440 kw = 0.8830361 pf=0.92 status=variable vmaxpu=1.5 vminpu=0.92 daily="RU2_DU"
 !28_2790
New "Load.BT_2819368_M1" bus1="UC2819368.1.4" phases=1 conn=Wye model=2 kv=0.220 kw = 0.1839777 pf=0.92 status=variable vmaxpu=1.5 vminpu=0.92 daily="RU8_DU" 
New "Load.BT_2819368_M2" bus1="UC2819368.1.4" phases=1 conn=Wye model=3 kv=0.220 kw = 0.1839777 pf=0.92 status=variable vmaxpu=1.5 vminpu=0.92 daily="RU8_DU"
 !28_5017
New "Load.BT_2821699_M1" bus1="UC2821699.1.4" phases=1 conn=Wye model=2 kv=0.220 kw = 0.2682423 pf=0.92 status=variable vmaxpu=1.5 vminpu=0.92 daily="RU8_DU" 
New "Load.BT_2821699_M2" bus1="UC2821699.1.4" phases=1 conn=Wye model=3 kv=0.220 kw = 0.2682423 pf=0.92 status=variable vmaxpu=1.5 vminpu=0.92 daily="RU8_DU"
 !28_655
New "Load.BT_2827095_M1" bus1="UC2827095.1.4" phases=1 conn=Wye model=2 kv=0.220 kw = 0.1816316 pf=0.92 status=variable vmaxpu=1.5 vminpu=0.92 daily="RU6_DU" 
New "Load.BT_2827095_M2" bus1="UC2827095.1.4" phases=1 conn=Wye model=3 kv=0.220 kw = 0.1816316 pf=0.92 status=variable vmaxpu=1.5 vminpu=0.92 daily="RU6_DU"
 !28_1998
New "Load.BT_2805296_M1" bus1="UC2805296.1.4" phases=1 conn=Wye model=2 kv=0.220 kw = 0.1225963 pf=0.92 status=variable vmaxpu=1.5 vminpu=0.92 daily="RU4_DU" 
New "Load.BT_2805296_M2" bus1="UC2805296.1.4" phases=1 conn=Wye model=3 kv=0.220 kw = 0.1225963 pf=0.92 status=variable vmaxpu=1.5 vminpu=0.92 daily="RU4_DU"
 !28_632
New "Load.BT_2831489_M1" bus1="UC2831489.1.4" phases=1 conn=Wye model=2 kv=0.220 kw = 0.0283799 pf=0.92 status=variable vmaxpu=1.5 vminpu=0.92 daily="RU6_DU" 
New "Load.BT_2831489_M2" bus1="UC2831489.1.4" phases=1 conn=Wye model=3 kv=0.220 kw = 0.0283799 pf=0.92 status=variable vmaxpu=1.5 vminpu=0.92 daily="RU6_DU"
 !28_4900
New "Load.BT_2805333_M1" bus1="UC2805333.1.4" phases=1 conn=Wye model=2 kv=0.220 kw = 0.4753324 pf=0.92 status=variable vmaxpu=1.5 vminpu=0.92 daily="RU2_DU" 
New "Load.BT_2805333_M2" bus1="UC2805333.1.4" phases=1 conn=Wye model=3 kv=0.220 kw = 0.4753324 pf=0.92 status=variable vmaxpu=1.5 vminpu=0.92 daily="RU2_DU"
 !28_639
New "Load.BT_2805215_M1" bus1="UC2805215.2.4" phases=1 conn=Wye model=2 kv=0.220 kw = 0.8848681 pf=0.92 status=variable vmaxpu=1.5 vminpu=0.92 daily="RU4_DU" 
New "Load.BT_2805215_M2" bus1="UC2805215.2.4" phases=1 conn=Wye model=3 kv=0.220 kw = 0.8848681 pf=0.92 status=variable vmaxpu=1.5 vminpu=0.92 daily="RU4_DU"
 !28_629
New "Load.BT_2838202_M1" bus1="UC2838202.1.4" phases=1 conn=Wye model=2 kv=0.220 kw = 0.2965457 pf=0.92 status=variable vmaxpu=1.5 vminpu=0.92 daily="RE4_DU" 
New "Load.BT_2838202_M2" bus1="UC2838202.1.4" phases=1 conn=Wye model=3 kv=0.220 kw = 0.2965457 pf=0.92 status=variable vmaxpu=1.5 vminpu=0.92 daily="RE4_DU"
 !28_4506
New "Load.BT_2834960_M1" bus1="UC2834960.1.2.3.4" phases=3 conn=Delta model=2 kv=0.380 kw = 0.5511714 pf=0.92 status=variable vmaxpu=1.5 vminpu=0.92 daily="RU5_DU" 
New "Load.BT_2834960_M2" bus1="UC2834960.1.2.3.4" phases=3 conn=Delta model=3 kv=0.380 kw = 0.5511714 pf=0.92 status=variable vmaxpu=1.5 vminpu=0.92 daily="RU5_DU"
 !28_5623
New "Load.BT_2817019_M1" bus1="UC2817019.2.4" phases=1 conn=Wye model=2 kv=0.220 kw = 0.2788076 pf=0.92 status=variable vmaxpu=1.5 vminpu=0.92 daily="RU4_DU" 
New "Load.BT_2817019_M2" bus1="UC2817019.2.4" phases=1 conn=Wye model=3 kv=0.220 kw = 0.2788076 pf=0.92 status=variable vmaxpu=1.5 vminpu=0.92 daily="RU4_DU"
 !28_5258
New "Load.BT_2836306_M1" bus1="UC2836306.1.4" phases=1 conn=Wye model=2 kv=0.220 kw = 0.2632276 pf=0.92 status=variable vmaxpu=1.5 vminpu=0.92 daily="RU5_DU" 
New "Load.BT_2836306_M2" bus1="UC2836306.1.4" phases=1 conn=Wye model=3 kv=0.220 kw = 0.2632276 pf=0.92 status=variable vmaxpu=1.5 vminpu=0.92 daily="RU5_DU"
 !28_5756
New "Load.BT_2805205_M1" bus1="UC2805205.1.4" phases=1 conn=Wye model=2 kv=0.220 kw = 0.3999748 pf=0.92 status=variable vmaxpu=1.5 vminpu=0.92 daily="RU2_DU" 
New "Load.BT_2805205_M2" bus1="UC2805205.1.4" phases=1 conn=Wye model=3 kv=0.220 kw = 0.3999748 pf=0.92 status=variable vmaxpu=1.5 vminpu=0.92 daily="RU2_DU"
 !28_637
New "Load.BT_2833916_M1" bus1="UC2833916.1.4" phases=1 conn=Wye model=2 kv=0.220 kw = 0.1035362 pf=0.92 status=variable vmaxpu=1.5 vminpu=0.92 daily="RE1_DU" 
New "Load.BT_2833916_M2" bus1="UC2833916.1.4" phases=1 conn=Wye model=3 kv=0.220 kw = 0.1035362 pf=0.92 status=variable vmaxpu=1.5 vminpu=0.92 daily="RE1_DU"
 !28_5380
New "Load.BT_2805208_M1" bus1="UC2805208.2.4" phases=1 conn=Wye model=2 kv=0.220 kw = 0.3381429 pf=0.92 status=variable vmaxpu=1.5 vminpu=0.92 daily="RU2_DU" 
New "Load.BT_2805208_M2" bus1="UC2805208.2.4" phases=1 conn=Wye model=3 kv=0.220 kw = 0.3381429 pf=0.92 status=variable vmaxpu=1.5 vminpu=0.92 daily="RU2_DU"
 !28_631
New "Load.BT_2805360_M1" bus1="UC2805360.1.4" phases=1 conn=Wye model=2 kv=0.220 kw = 0.1433540 pf=0.92 status=variable vmaxpu=1.5 vminpu=0.92 daily="RU5_DU" 
New "Load.BT_2805360_M2" bus1="UC2805360.1.4" phases=1 conn=Wye model=3 kv=0.220 kw = 0.1433540 pf=0.92 status=variable vmaxpu=1.5 vminpu=0.92 daily="RU5_DU"
 !28_697
New "Load.BT_2833914_M1" bus1="UC2833914.2.4" phases=1 conn=Wye model=2 kv=0.220 kw = 0.1196302 pf=0.92 status=variable vmaxpu=1.5 vminpu=0.92 daily="RU4_DU" 
New "Load.BT_2833914_M2" bus1="UC2833914.2.4" phases=1 conn=Wye model=3 kv=0.220 kw = 0.1196302 pf=0.92 status=variable vmaxpu=1.5 vminpu=0.92 daily="RU4_DU"
 !28_631
New "Load.BT_2825865_M1" bus1="UC2825865.1.4" phases=1 conn=Wye model=2 kv=0.220 kw = 0.0000000 pf=0.92 status=variable vmaxpu=1.5 vminpu=0.92 daily="RU4_DU" 
New "Load.BT_2825865_M2" bus1="UC2825865.1.4" phases=1 conn=Wye model=3 kv=0.220 kw = 0.0000000 pf=0.92 status=variable vmaxpu=1.5 vminpu=0.92 daily="RU4_DU"
 !28_4900
New "Load.BT_2836304_M1" bus1="UC2836304.1.4" phases=1 conn=Wye model=2 kv=0.220 kw = 0.2218968 pf=0.92 status=variable vmaxpu=1.5 vminpu=0.92 daily="RU8_DU" 
New "Load.BT_2836304_M2" bus1="UC2836304.1.4" phases=1 conn=Wye model=3 kv=0.220 kw = 0.2218968 pf=0.92 status=variable vmaxpu=1.5 vminpu=0.92 daily="RU8_DU"
 !28_4965
New "Load.BT_2805265_M1" bus1="UC2805265.2.4" phases=1 conn=Wye model=2 kv=0.220 kw = 0.4052655 pf=0.92 status=variable vmaxpu=1.5 vminpu=0.92 daily="RU6_DU" 
New "Load.BT_2805265_M2" bus1="UC2805265.2.4" phases=1 conn=Wye model=3 kv=0.220 kw = 0.4052655 pf=0.92 status=variable vmaxpu=1.5 vminpu=0.92 daily="RU6_DU"
 !28_3781
New "Load.BT_2805282_M1" bus1="UC2805282.1.2.4" phases=1 conn=Delta model=2 kv=0.440 kw = 0.3019625 pf=0.92 status=variable vmaxpu=1.5 vminpu=0.92 daily="RU6_DU" 
New "Load.BT_2805282_M2" bus1="UC2805282.1.2.4" phases=1 conn=Delta model=3 kv=0.440 kw = 0.3019625 pf=0.92 status=variable vmaxpu=1.5 vminpu=0.92 daily="RU6_DU"
 !28_633
New "Load.BT_2819347_M1" bus1="UC2819347.1.4" phases=1 conn=Wye model=2 kv=0.220 kw = 0.1128591 pf=0.92 status=variable vmaxpu=1.5 vminpu=0.92 daily="RU1_DU" 
New "Load.BT_2819347_M2" bus1="UC2819347.1.4" phases=1 conn=Wye model=3 kv=0.220 kw = 0.1128591 pf=0.92 status=variable vmaxpu=1.5 vminpu=0.92 daily="RU1_DU"
 !28_1991
New "Load.BT_2806091_M1" bus1="UC2806091.1.4" phases=1 conn=Wye model=2 kv=0.220 kw = 0.2949597 pf=0.92 status=variable vmaxpu=1.5 vminpu=0.92 daily="RU7_DU" 
New "Load.BT_2806091_M2" bus1="UC2806091.1.4" phases=1 conn=Wye model=3 kv=0.220 kw = 0.2949597 pf=0.92 status=variable vmaxpu=1.5 vminpu=0.92 daily="RU7_DU"
 !2_1955
New "Load.BT_2806074_M1" bus1="UC2806074.1.4" phases=1 conn=Wye model=2 kv=0.220 kw = 0.1543868 pf=0.92 status=variable vmaxpu=1.5 vminpu=0.92 daily="RU6_DU" 
New "Load.BT_2806074_M2" bus1="UC2806074.1.4" phases=1 conn=Wye model=3 kv=0.220 kw = 0.1543868 pf=0.92 status=variable vmaxpu=1.5 vminpu=0.92 daily="RU6_DU"
 !28_2943
New "Load.BT_2805304_M1" bus1="UC2805304.2.4" phases=1 conn=Wye model=2 kv=0.220 kw = 0.2234416 pf=0.92 status=variable vmaxpu=1.5 vminpu=0.92 daily="RU4_DU" 
New "Load.BT_2805304_M2" bus1="UC2805304.2.4" phases=1 conn=Wye model=3 kv=0.220 kw = 0.2234416 pf=0.92 status=variable vmaxpu=1.5 vminpu=0.92 daily="RU4_DU"
 !28_633
New "Load.BT_2832709_M1" bus1="UC2832709.1.4" phases=1 conn=Wye model=2 kv=0.220 kw = 0.0917920 pf=0.92 status=variable vmaxpu=1.5 vminpu=0.92 daily="RU1_DU" 
New "Load.BT_2832709_M2" bus1="UC2832709.1.4" phases=1 conn=Wye model=3 kv=0.220 kw = 0.0917920 pf=0.92 status=variable vmaxpu=1.5 vminpu=0.92 daily="RU1_DU"
 !28_4048
New "Load.BT_2834135_M1" bus1="UC2834135.1.2.3.4" phases=3 conn=Delta model=2 kv=0.380 kw = 0.0000000 pf=0.92 status=variable vmaxpu=1.5 vminpu=0.92 daily="RU3_DU" 
New "Load.BT_2834135_M2" bus1="UC2834135.1.2.3.4" phases=3 conn=Delta model=3 kv=0.380 kw = 0.0000000 pf=0.92 status=variable vmaxpu=1.5 vminpu=0.92 daily="RU3_DU"
 !28_5324
New "Load.BT_2805429_M1" bus1="UC2805429.1.4" phases=1 conn=Wye model=2 kv=0.219 kw = 0.2091655 pf=0.92 status=variable vmaxpu=1.5 vminpu=0.92 daily="RU1_DU" 
New "Load.BT_2805429_M2" bus1="UC2805429.1.4" phases=1 conn=Wye model=3 kv=0.219 kw = 0.2091655 pf=0.92 status=variable vmaxpu=1.5 vminpu=0.92 daily="RU1_DU"
 !28_694
New "Load.BT_2805386_M1" bus1="UC2805386.1.4" phases=1 conn=Wye model=2 kv=0.220 kw = 0.0374238 pf=0.92 status=variable vmaxpu=1.5 vminpu=0.92 daily="RU3_DU" 
New "Load.BT_2805386_M2" bus1="UC2805386.1.4" phases=1 conn=Wye model=3 kv=0.220 kw = 0.0374238 pf=0.92 status=variable vmaxpu=1.5 vminpu=0.92 daily="RU3_DU"
 !28_2945
New "Load.BT_2838208_M1" bus1="UC2838208.1.4" phases=1 conn=Wye model=2 kv=0.220 kw = 0.2685821 pf=0.92 status=variable vmaxpu=1.5 vminpu=0.92 daily="RU2_DU" 
New "Load.BT_2838208_M2" bus1="UC2838208.1.4" phases=1 conn=Wye model=3 kv=0.220 kw = 0.2685821 pf=0.92 status=variable vmaxpu=1.5 vminpu=0.92 daily="RU2_DU"
 !28_632
New "Load.BT_2805326_M1" bus1="UC2805326.1.4" phases=1 conn=Wye model=2 kv=0.219 kw = 0.1079199 pf=0.92 status=variable vmaxpu=1.5 vminpu=0.92 daily="RU3_DU" 
New "Load.BT_2805326_M2" bus1="UC2805326.1.4" phases=1 conn=Wye model=3 kv=0.219 kw = 0.1079199 pf=0.92 status=variable vmaxpu=1.5 vminpu=0.92 daily="RU3_DU"
 !28_626
New "Load.BT_2837166_M1" bus1="UC2837166.1.2.3.4" phases=3 conn=Delta model=2 kv=0.380 kw = 0.0000000 pf=0.92 status=variable vmaxpu=1.5 vminpu=0.92 daily="RU1_DU" 
New "Load.BT_2837166_M2" bus1="UC2837166.1.2.3.4" phases=3 conn=Delta model=3 kv=0.380 kw = 0.0000000 pf=0.92 status=variable vmaxpu=1.5 vminpu=0.92 daily="RU1_DU"
 !28_6095
New "Load.BT_2805365_M1" bus1="UC2805365.2.4" phases=1 conn=Wye model=2 kv=0.220 kw = 0.1235857 pf=0.92 status=variable vmaxpu=1.5 vminpu=0.92 daily="RU3_DU" 
New "Load.BT_2805365_M2" bus1="UC2805365.2.4" phases=1 conn=Wye model=3 kv=0.220 kw = 0.1235857 pf=0.92 status=variable vmaxpu=1.5 vminpu=0.92 daily="RU3_DU"
 !28_5258
New "Load.BT_2831802_M1" bus1="UC2831802.1.2.4" phases=1 conn=Delta model=2 kv=0.440 kw = 0.6164122 pf=0.92 status=variable vmaxpu=1.5 vminpu=0.92 daily="RU6_DU" 
New "Load.BT_2831802_M2" bus1="UC2831802.1.2.4" phases=1 conn=Delta model=3 kv=0.440 kw = 0.6164122 pf=0.92 status=variable vmaxpu=1.5 vminpu=0.92 daily="RU6_DU"
 !28_4828
New "Load.BT_2818330_M1" bus1="UC2818330.2.4" phases=1 conn=Wye model=2 kv=0.220 kw = 0.1591774 pf=0.92 status=variable vmaxpu=1.5 vminpu=0.92 daily="RU4_DU" 
New "Load.BT_2818330_M2" bus1="UC2818330.2.4" phases=1 conn=Wye model=3 kv=0.220 kw = 0.1591774 pf=0.92 status=variable vmaxpu=1.5 vminpu=0.92 daily="RU4_DU"
 !28_1993
New "Load.BT_2836308_M1" bus1="UC2836308.1.2.3.4" phases=3 conn=Delta model=2 kv=0.380 kw = 1.0503417 pf=0.92 status=variable vmaxpu=1.5 vminpu=0.92 daily="RU1_DU" 
New "Load.BT_2836308_M2" bus1="UC2836308.1.2.3.4" phases=3 conn=Delta model=3 kv=0.380 kw = 1.0503417 pf=0.92 status=variable vmaxpu=1.5 vminpu=0.92 daily="RU1_DU"
 !28_5681
New "Load.BT_2803522_M1" bus1="UC2803522.1.2.4" phases=1 conn=Delta model=2 kv=0.440 kw = 1.3478693 pf=0.92 status=variable vmaxpu=1.5 vminpu=0.92 daily="RU7_DU" 
New "Load.BT_2803522_M2" bus1="UC2803522.1.2.4" phases=1 conn=Delta model=3 kv=0.440 kw = 1.3478693 pf=0.92 status=variable vmaxpu=1.5 vminpu=0.92 daily="RU7_DU"
 !28_6194
New "Load.BT_2805257_M1" bus1="UC2805257.1.2.4" phases=1 conn=Delta model=2 kv=0.380 kw = 0.0123581 pf=0.92 status=variable vmaxpu=1.5 vminpu=0.92 daily="RU5_DU" 
New "Load.BT_2805257_M2" bus1="UC2805257.1.2.4" phases=1 conn=Delta model=3 kv=0.380 kw = 0.0123581 pf=0.92 status=variable vmaxpu=1.5 vminpu=0.92 daily="RU5_DU"
 !28_3949
New "Load.BT_2822262_M1" bus1="UC2822262.2.4" phases=1 conn=Wye model=2 kv=0.219 kw = 0.5466716 pf=0.92 status=variable vmaxpu=1.5 vminpu=0.92 daily="RE2_DU" 
New "Load.BT_2822262_M2" bus1="UC2822262.2.4" phases=1 conn=Wye model=3 kv=0.219 kw = 0.5466716 pf=0.92 status=variable vmaxpu=1.5 vminpu=0.92 daily="RE2_DU"
 !28_1990
New "Load.BT_2805246_M1" bus1="UC2805246.1.4" phases=1 conn=Wye model=2 kv=0.219 kw = 0.2962865 pf=0.92 status=variable vmaxpu=1.5 vminpu=0.92 daily="RU6_DU" 
New "Load.BT_2805246_M2" bus1="UC2805246.1.4" phases=1 conn=Wye model=3 kv=0.219 kw = 0.2962865 pf=0.92 status=variable vmaxpu=1.5 vminpu=0.92 daily="RU6_DU"
 !28_694
New "Load.BT_2833912_M1" bus1="UC2833912.1.4" phases=1 conn=Wye model=2 kv=0.220 kw = 0.1067774 pf=0.92 status=variable vmaxpu=1.5 vminpu=0.92 daily="RU4_DU" 
New "Load.BT_2833912_M2" bus1="UC2833912.1.4" phases=1 conn=Wye model=3 kv=0.220 kw = 0.1067774 pf=0.92 status=variable vmaxpu=1.5 vminpu=0.92 daily="RU4_DU"
 !2_1992
New "Load.BT_2805428_M1" bus1="UC2805428.2.4" phases=1 conn=Wye model=2 kv=0.219 kw = 0.0791993 pf=0.92 status=variable vmaxpu=1.5 vminpu=0.92 daily="RU3_DU" 
New "Load.BT_2805428_M2" bus1="UC2805428.2.4" phases=1 conn=Wye model=3 kv=0.219 kw = 0.0791993 pf=0.92 status=variable vmaxpu=1.5 vminpu=0.92 daily="RU3_DU"
 !28_694
New "Load.BT_2818332_M1" bus1="UC2818332.1.4" phases=1 conn=Wye model=2 kv=0.220 kw = 0.2323324 pf=0.92 status=variable vmaxpu=1.5 vminpu=0.92 daily="RU5_DU" 
New "Load.BT_2818332_M2" bus1="UC2818332.1.4" phases=1 conn=Wye model=3 kv=0.220 kw = 0.2323324 pf=0.92 status=variable vmaxpu=1.5 vminpu=0.92 daily="RU5_DU"
 !28_635
New "Load.BT_2817034_M1" bus1="UC2817034.1.4" phases=1 conn=Wye model=2 kv=0.220 kw = 0.1432498 pf=0.92 status=variable vmaxpu=1.5 vminpu=0.92 daily="RU8_DU" 
New "Load.BT_2817034_M2" bus1="UC2817034.1.4" phases=1 conn=Wye model=3 kv=0.220 kw = 0.1432498 pf=0.92 status=variable vmaxpu=1.5 vminpu=0.92 daily="RU8_DU"
 !28_1991
New "Load.BT_2805274_M1" bus1="UC2805274.2.4" phases=1 conn=Wye model=2 kv=0.220 kw = 0.2538588 pf=0.92 status=variable vmaxpu=1.5 vminpu=0.92 daily="RU7_DU" 
New "Load.BT_2805274_M2" bus1="UC2805274.2.4" phases=1 conn=Wye model=3 kv=0.220 kw = 0.2538588 pf=0.92 status=variable vmaxpu=1.5 vminpu=0.92 daily="RU7_DU"
 !28_4506
New "Load.BT_2824960_M1" bus1="UC2824960.1.4" phases=1 conn=Wye model=2 kv=0.219 kw = 0.2443995 pf=0.92 status=variable vmaxpu=1.5 vminpu=0.92 daily="RE6_DU" 
New "Load.BT_2824960_M2" bus1="UC2824960.1.4" phases=1 conn=Wye model=3 kv=0.219 kw = 0.2443995 pf=0.92 status=variable vmaxpu=1.5 vminpu=0.92 daily="RE6_DU"
 !28_3960
New "Load.BT_2831486_M1" bus1="UC2831486.1.4" phases=1 conn=Wye model=2 kv=0.220 kw = 0.2817648 pf=0.92 status=variable vmaxpu=1.5 vminpu=0.92 daily="RU5_DU" 
New "Load.BT_2831486_M2" bus1="UC2831486.1.4" phases=1 conn=Wye model=3 kv=0.220 kw = 0.2817648 pf=0.92 status=variable vmaxpu=1.5 vminpu=0.92 daily="RU5_DU"
 !28_631
New "Load.BT_2805288_M1" bus1="UC2805288.1.4" phases=1 conn=Wye model=2 kv=0.220 kw = 0.1816316 pf=0.92 status=variable vmaxpu=1.5 vminpu=0.92 daily="RU6_DU" 
New "Load.BT_2805288_M2" bus1="UC2805288.1.4" phases=1 conn=Wye model=3 kv=0.220 kw = 0.1816316 pf=0.92 status=variable vmaxpu=1.5 vminpu=0.92 daily="RU6_DU"
 !28_4628
New "Load.BT_2838210_M1" bus1="UC2838210.1.4" phases=1 conn=Wye model=2 kv=0.220 kw = 0.1849543 pf=0.92 status=variable vmaxpu=1.5 vminpu=0.92 daily="RU7_DU" 
New "Load.BT_2838210_M2" bus1="UC2838210.1.4" phases=1 conn=Wye model=3 kv=0.220 kw = 0.1849543 pf=0.92 status=variable vmaxpu=1.5 vminpu=0.92 daily="RU7_DU"
 !28_1935
New "Load.BT_2838209_M1" bus1="UC2838209.1.2.3.4" phases=3 conn=Delta model=2 kv=0.380 kw = 0.0737399 pf=0.92 status=variable vmaxpu=1.5 vminpu=0.92 daily="RU7_DU" 
New "Load.BT_2838209_M2" bus1="UC2838209.1.2.3.4" phases=3 conn=Delta model=3 kv=0.380 kw = 0.0737399 pf=0.92 status=variable vmaxpu=1.5 vminpu=0.92 daily="RU7_DU"
 !28_5616
New "Load.BT_2835368_M1" bus1="UC2835368.1.4" phases=1 conn=Wye model=2 kv=0.220 kw = 0.4621931 pf=0.92 status=variable vmaxpu=1.5 vminpu=0.92 daily="RU5_DU" 
New "Load.BT_2835368_M2" bus1="UC2835368.1.4" phases=1 conn=Wye model=3 kv=0.220 kw = 0.4621931 pf=0.92 status=variable vmaxpu=1.5 vminpu=0.92 daily="RU5_DU"
 !28_631
New "Load.BT_2806095_M1" bus1="UC2806095.1.4" phases=1 conn=Wye model=2 kv=0.220 kw = 0.0346101 pf=0.92 status=variable vmaxpu=1.5 vminpu=0.92 daily="RU1_DU" 
New "Load.BT_2806095_M2" bus1="UC2806095.1.4" phases=1 conn=Wye model=3 kv=0.220 kw = 0.0346101 pf=0.92 status=variable vmaxpu=1.5 vminpu=0.92 daily="RU1_DU"
 !28_4444
New "Load.BT_2835361_M1" bus1="UC2835361.2.4" phases=1 conn=Wye model=2 kv=0.219 kw = 0.2160756 pf=0.92 status=variable vmaxpu=1.5 vminpu=0.92 daily="RE1_DU" 
New "Load.BT_2835361_M2" bus1="UC2835361.2.4" phases=1 conn=Wye model=3 kv=0.219 kw = 0.2160756 pf=0.92 status=variable vmaxpu=1.5 vminpu=0.92 daily="RE1_DU"
 !28_1990
New "Load.BT_2831807_M1" bus1="UC2831807.1.4" phases=1 conn=Wye model=2 kv=0.220 kw = 0.2756181 pf=0.92 status=variable vmaxpu=1.5 vminpu=0.92 daily="RU7_DU" 
New "Load.BT_2831807_M2" bus1="UC2831807.1.4" phases=1 conn=Wye model=3 kv=0.220 kw = 0.2756181 pf=0.92 status=variable vmaxpu=1.5 vminpu=0.92 daily="RU7_DU"
 !28_2793
New "Load.BT_2821687_M1" bus1="UC2821687.1.4" phases=1 conn=Wye model=2 kv=0.220 kw = 0.0752394 pf=0.92 status=variable vmaxpu=1.5 vminpu=0.92 daily="RU1_DU" 
New "Load.BT_2821687_M2" bus1="UC2821687.1.4" phases=1 conn=Wye model=3 kv=0.220 kw = 0.0752394 pf=0.92 status=variable vmaxpu=1.5 vminpu=0.92 daily="RU1_DU"
 !28_2832
New "Load.BT_2826239_M1" bus1="UC2826239.1.4" phases=1 conn=Wye model=2 kv=0.220 kw = 0.2822864 pf=0.92 status=variable vmaxpu=1.5 vminpu=0.92 daily="RU8_DU" 
New "Load.BT_2826239_M2" bus1="UC2826239.1.4" phases=1 conn=Wye model=3 kv=0.220 kw = 0.2822864 pf=0.92 status=variable vmaxpu=1.5 vminpu=0.92 daily="RU8_DU"
 !28_697
New "Load.BT_2819358_M1" bus1="UC2819358.1.4" phases=1 conn=Wye model=2 kv=0.220 kw = 0.0034056 pf=0.92 status=variable vmaxpu=1.5 vminpu=0.92 daily="RU6_DU" 
New "Load.BT_2819358_M2" bus1="UC2819358.1.4" phases=1 conn=Wye model=3 kv=0.220 kw = 0.0034056 pf=0.92 status=variable vmaxpu=1.5 vminpu=0.92 daily="RU6_DU"
 !28_2412
New "Load.BT_2821691_M1" bus1="UC2821691.3.4" phases=1 conn=Wye model=2 kv=0.219 kw = 0.1401111 pf=0.92 status=variable vmaxpu=1.5 vminpu=0.92 daily="RE3_DU" 
New "Load.BT_2821691_M2" bus1="UC2821691.3.4" phases=1 conn=Wye model=3 kv=0.219 kw = 0.1401111 pf=0.92 status=variable vmaxpu=1.5 vminpu=0.92 daily="RE3_DU"
 !28_1990
New "Load.BT_2828384_M1" bus1="UC2828384.1.2.3.4" phases=3 conn=Delta model=2 kv=0.380 kw = 0.1391217 pf=0.92 status=variable vmaxpu=1.5 vminpu=0.92 daily="RU2_DU" 
New "Load.BT_2828384_M2" bus1="UC2828384.1.2.3.4" phases=3 conn=Delta model=3 kv=0.380 kw = 0.1391217 pf=0.92 status=variable vmaxpu=1.5 vminpu=0.92 daily="RU2_DU"
 !28_3696
New "Load.BT_2836675_M1" bus1="UC2836675.1.2.3.4" phases=3 conn=Delta model=2 kv=0.380 kw = 0.4857477 pf=0.92 status=variable vmaxpu=1.5 vminpu=0.92 daily="IN4_DU" 
New "Load.BT_2836675_M2" bus1="UC2836675.1.2.3.4" phases=3 conn=Delta model=3 kv=0.380 kw = 0.4857477 pf=0.92 status=variable vmaxpu=1.5 vminpu=0.92 daily="IN4_DU"
 !28_3261
New "Load.BT_2805354_M1" bus1="UC2805354.2.4" phases=1 conn=Wye model=2 kv=0.219 kw = 0.2588250 pf=0.92 status=variable vmaxpu=1.5 vminpu=0.92 daily="RU6_DU" 
New "Load.BT_2805354_M2" bus1="UC2805354.2.4" phases=1 conn=Wye model=3 kv=0.219 kw = 0.2588250 pf=0.92 status=variable vmaxpu=1.5 vminpu=0.92 daily="RU6_DU"
 !28_694
New "Load.BT_2805349_M1" bus1="UC2805349.2.4" phases=1 conn=Wye model=2 kv=0.220 kw = 0.1293471 pf=0.92 status=variable vmaxpu=1.5 vminpu=0.92 daily="RU7_DU" 
New "Load.BT_2805349_M2" bus1="UC2805349.2.4" phases=1 conn=Wye model=3 kv=0.220 kw = 0.1293471 pf=0.92 status=variable vmaxpu=1.5 vminpu=0.92 daily="RU7_DU"
 !28_5756
New "Load.BT_2805289_M1" bus1="UC2805289.1.4" phases=1 conn=Wye model=2 kv=0.220 kw = 0.1580027 pf=0.92 status=variable vmaxpu=1.5 vminpu=0.92 daily="RU1_DU" 
New "Load.BT_2805289_M2" bus1="UC2805289.1.4" phases=1 conn=Wye model=3 kv=0.220 kw = 0.1580027 pf=0.92 status=variable vmaxpu=1.5 vminpu=0.92 daily="RU1_DU"
 !28_6255
New "Load.BT_2817015_M1" bus1="UC2817015.1.4" phases=1 conn=Wye model=2 kv=0.220 kw = 0.0079464 pf=0.92 status=variable vmaxpu=1.5 vminpu=0.92 daily="RU6_DU" 
New "Load.BT_2817015_M2" bus1="UC2817015.1.4" phases=1 conn=Wye model=3 kv=0.220 kw = 0.0079464 pf=0.92 status=variable vmaxpu=1.5 vminpu=0.92 daily="RU6_DU"
 !28_4444
New "Load.BT_2807370_M1" bus1="UC2807370.1.2.4" phases=1 conn=Delta model=2 kv=0.440 kw = 0.1619861 pf=0.92 status=variable vmaxpu=1.5 vminpu=0.92 daily="RU7_DU" 
New "Load.BT_2807370_M2" bus1="UC2807370.1.2.4" phases=1 conn=Delta model=3 kv=0.440 kw = 0.1619861 pf=0.92 status=variable vmaxpu=1.5 vminpu=0.92 daily="RU7_DU"
 !28_1945
New "Load.BT_2836080_M1" bus1="UC2836080.1.2.3.4" phases=3 conn=Delta model=2 kv=0.380 kw = 0.3720956 pf=0.92 status=variable vmaxpu=1.5 vminpu=0.92 daily="CO7_DU" 
New "Load.BT_2836080_M2" bus1="UC2836080.1.2.3.4" phases=3 conn=Delta model=3 kv=0.380 kw = 0.3720956 pf=0.92 status=variable vmaxpu=1.5 vminpu=0.92 daily="CO7_DU"
 !28_4119
New "Load.BT_2806068_M1" bus1="UC2806068.2.4" phases=1 conn=Wye model=2 kv=0.220 kw = 0.1009573 pf=0.92 status=variable vmaxpu=1.5 vminpu=0.92 daily="RU3_DU" 
New "Load.BT_2806068_M2" bus1="UC2806068.2.4" phases=1 conn=Wye model=3 kv=0.220 kw = 0.1009573 pf=0.92 status=variable vmaxpu=1.5 vminpu=0.92 daily="RU3_DU"
 !28_1935
New "Load.BT_2805425_M1" bus1="UC2805425.2.4" phases=1 conn=Wye model=2 kv=0.219 kw = 0.2100878 pf=0.92 status=variable vmaxpu=1.5 vminpu=0.92 daily="RU5_DU" 
New "Load.BT_2805425_M2" bus1="UC2805425.2.4" phases=1 conn=Wye model=3 kv=0.219 kw = 0.2100878 pf=0.92 status=variable vmaxpu=1.5 vminpu=0.92 daily="RU5_DU"
 !28_694
New "Load.BT_2805290_M1" bus1="UC2805290.1.4" phases=1 conn=Wye model=2 kv=0.220 kw = 0.5173884 pf=0.92 status=variable vmaxpu=1.5 vminpu=0.92 daily="RU7_DU" 
New "Load.BT_2805290_M2" bus1="UC2805290.1.4" phases=1 conn=Wye model=3 kv=0.220 kw = 0.5173884 pf=0.92 status=variable vmaxpu=1.5 vminpu=0.92 daily="RU7_DU"
 !28_6255
New "Load.BT_2805366_M1" bus1="UC2805366.2.4" phases=1 conn=Wye model=2 kv=0.220 kw = 0.2527938 pf=0.92 status=variable vmaxpu=1.5 vminpu=0.92 daily="RU8_DU" 
New "Load.BT_2805366_M2" bus1="UC2805366.2.4" phases=1 conn=Wye model=3 kv=0.220 kw = 0.2527938 pf=0.92 status=variable vmaxpu=1.5 vminpu=0.92 daily="RU8_DU"
 !28_5258
New "Load.BT_2836489_M1" bus1="UC2836489.2.4" phases=1 conn=Wye model=2 kv=0.220 kw = 0.6515730 pf=0.92 status=variable vmaxpu=1.5 vminpu=0.92 daily="RU1_DU" 
New "Load.BT_2836489_M2" bus1="UC2836489.2.4" phases=1 conn=Wye model=3 kv=0.220 kw = 0.6515730 pf=0.92 status=variable vmaxpu=1.5 vminpu=0.92 daily="RU1_DU"
 !28_695
New "Load.BT_2807371_M1" bus1="UC2807371.1.4" phases=1 conn=Wye model=2 kv=0.220 kw = 0.1544851 pf=0.92 status=variable vmaxpu=1.5 vminpu=0.92 daily="RU8_DU" 
New "Load.BT_2807371_M2" bus1="UC2807371.1.4" phases=1 conn=Wye model=3 kv=0.220 kw = 0.1544851 pf=0.92 status=variable vmaxpu=1.5 vminpu=0.92 daily="RU8_DU"
 !28_4801
New "Load.BT_3205285_M1" bus1="UC3205285.1.4" phases=1 conn=Wye model=2 kv=0.220 kw = 0.3072236 pf=0.92 status=variable vmaxpu=1.5 vminpu=0.92 daily="RU3_DU" 
New "Load.BT_3205285_M2" bus1="UC3205285.1.4" phases=1 conn=Wye model=3 kv=0.220 kw = 0.3072236 pf=0.92 status=variable vmaxpu=1.5 vminpu=0.92 daily="RU3_DU"
 !32_702
New "Load.BT_2821026_M1" bus1="UC2821026.1.4" phases=1 conn=Wye model=2 kv=0.219 kw = 0.1008208 pf=0.92 status=variable vmaxpu=1.5 vminpu=0.92 daily="RU1_DU" 
New "Load.BT_2821026_M2" bus1="UC2821026.1.4" phases=1 conn=Wye model=3 kv=0.219 kw = 0.1008208 pf=0.92 status=variable vmaxpu=1.5 vminpu=0.92 daily="RU1_DU"
 !28_694
New "Load.BT_2825582_M1" bus1="UC2825582.2.4" phases=1 conn=Wye model=2 kv=0.220 kw = 0.2218968 pf=0.92 status=variable vmaxpu=1.5 vminpu=0.92 daily="RU8_DU" 
New "Load.BT_2825582_M2" bus1="UC2825582.2.4" phases=1 conn=Wye model=3 kv=0.220 kw = 0.2218968 pf=0.92 status=variable vmaxpu=1.5 vminpu=0.92 daily="RU8_DU"
 !28_635
New "Load.BT_2833915_M1" bus1="UC2833915.1.2.3.4" phases=3 conn=Delta model=2 kv=0.380 kw = 1.9198283 pf=0.92 status=variable vmaxpu=1.5 vminpu=0.92 daily="RU8_DU" 
New "Load.BT_2833915_M2" bus1="UC2833915.1.2.3.4" phases=3 conn=Delta model=3 kv=0.380 kw = 1.9198283 pf=0.92 status=variable vmaxpu=1.5 vminpu=0.92 daily="RU8_DU"
 !28_5398
New "Load.BT_2834959_M1" bus1="UC2834959.1.4" phases=1 conn=Wye model=2 kv=0.220 kw = 0.0024177 pf=0.92 status=variable vmaxpu=1.5 vminpu=0.92 daily="RU7_DU" 
New "Load.BT_2834959_M2" bus1="UC2834959.1.4" phases=1 conn=Wye model=3 kv=0.220 kw = 0.0024177 pf=0.92 status=variable vmaxpu=1.5 vminpu=0.92 daily="RU7_DU"
 !28_636
New "Load.BT_2819343_M1" bus1="UC2819343.1.4" phases=1 conn=Wye model=2 kv=0.220 kw = 0.1623086 pf=0.92 status=variable vmaxpu=1.5 vminpu=0.92 daily="RU2_DU" 
New "Load.BT_2819343_M2" bus1="UC2819343.1.4" phases=1 conn=Wye model=3 kv=0.220 kw = 0.1623086 pf=0.92 status=variable vmaxpu=1.5 vminpu=0.92 daily="RU2_DU"
 !28_4900
New "Load.BT_2805231_M1" bus1="UC2805231.2.4" phases=1 conn=Wye model=2 kv=0.220 kw = 0.3274898 pf=0.92 status=variable vmaxpu=1.5 vminpu=0.92 daily="RU5_DU" 
New "Load.BT_2805231_M2" bus1="UC2805231.2.4" phases=1 conn=Wye model=3 kv=0.220 kw = 0.3274898 pf=0.92 status=variable vmaxpu=1.5 vminpu=0.92 daily="RU5_DU"
 !28_778
New "Load.BT_2823647_M1" bus1="UC2823647.1.4" phases=1 conn=Wye model=2 kv=0.220 kw = 0.0308953 pf=0.92 status=variable vmaxpu=1.5 vminpu=0.92 daily="RU5_DU" 
New "Load.BT_2823647_M2" bus1="UC2823647.1.4" phases=1 conn=Wye model=3 kv=0.220 kw = 0.0308953 pf=0.92 status=variable vmaxpu=1.5 vminpu=0.92 daily="RU5_DU"
 !28_1829
New "Load.BT_2826236_M1" bus1="UC2826236.1.4" phases=1 conn=Wye model=2 kv=0.220 kw = 0.3596442 pf=0.92 status=variable vmaxpu=1.5 vminpu=0.92 daily="RU1_DU" 
New "Load.BT_2826236_M2" bus1="UC2826236.1.4" phases=1 conn=Wye model=3 kv=0.220 kw = 0.3596442 pf=0.92 status=variable vmaxpu=1.5 vminpu=0.92 daily="RU1_DU"
 !28_631
New "Load.BT_2836791_M1" bus1="UC2836791.1.2.3.4" phases=3 conn=Delta model=2 kv=0.380 kw = 0.1997947 pf=0.92 status=variable vmaxpu=1.5 vminpu=0.92 daily="RU6_DU" 
New "Load.BT_2836791_M2" bus1="UC2836791.1.2.3.4" phases=3 conn=Delta model=3 kv=0.380 kw = 0.1997947 pf=0.92 status=variable vmaxpu=1.5 vminpu=0.92 daily="RU6_DU"
 !28_6018
New "Load.BT_2805441_M1" bus1="UC2805441.1.4" phases=1 conn=Wye model=2 kv=0.220 kw = 0.2088520 pf=0.92 status=variable vmaxpu=1.5 vminpu=0.92 daily="RU5_DU" 
New "Load.BT_2805441_M2" bus1="UC2805441.1.4" phases=1 conn=Wye model=3 kv=0.220 kw = 0.2088520 pf=0.92 status=variable vmaxpu=1.5 vminpu=0.92 daily="RU5_DU"
 !28_1829
New "Load.BT_2805240_M1" bus1="UC2805240.1.2.4" phases=1 conn=Delta model=2 kv=0.380 kw = 0.9840050 pf=0.92 status=variable vmaxpu=1.5 vminpu=0.92 daily="RU7_DU" 
New "Load.BT_2805240_M2" bus1="UC2805240.1.2.4" phases=1 conn=Delta model=3 kv=0.380 kw = 0.9840050 pf=0.92 status=variable vmaxpu=1.5 vminpu=0.92 daily="RU7_DU"
 !28_5513
New "Load.BT_2838968_M1" bus1="UC2838968.1.4" phases=1 conn=Wye model=2 kv=0.220 kw = 0.0382942 pf=0.92 status=variable vmaxpu=1.5 vminpu=0.92 daily="RU3_DU" 
New "Load.BT_2838968_M2" bus1="UC2838968.1.4" phases=1 conn=Wye model=3 kv=0.220 kw = 0.0382942 pf=0.92 status=variable vmaxpu=1.5 vminpu=0.92 daily="RU3_DU"
 !28_4965
New "Load.BT_2832904_M1" bus1="UC2832904.2.4" phases=1 conn=Wye model=2 kv=0.220 kw = 0.3678039 pf=0.92 status=variable vmaxpu=1.5 vminpu=0.92 daily="RU6_DU" 
New "Load.BT_2832904_M2" bus1="UC2832904.2.4" phases=1 conn=Wye model=3 kv=0.220 kw = 0.3678039 pf=0.92 status=variable vmaxpu=1.5 vminpu=0.92 daily="RU6_DU"
 !28_5100

New "Load.BT_2805321_M1" bus1="UC2805321.1.4" phases=1 conn=Wye model=2 kv=0.220 kw = 0.1909985 pf=0.92 status=variable vmaxpu=1.5 vminpu=0.92 daily="RU7_DU" 
New "Load.BT_2805321_M2" bus1="UC2805321.1.4" phases=1 conn=Wye model=3 kv=0.220 kw = 0.1909985 pf=0.92 status=variable vmaxpu=1.5 vminpu=0.92 daily="RU7_DU"
 !28_635
New "Load.BT_2805443_M1" bus1="UC2805443.1.4" phases=1 conn=Wye model=2 kv=0.220 kw = 0.1294125 pf=0.92 status=variable vmaxpu=1.5 vminpu=0.92 daily="RU6_DU" 
New "Load.BT_2805443_M2" bus1="UC2805443.1.4" phases=1 conn=Wye model=3 kv=0.220 kw = 0.1294125 pf=0.92 status=variable vmaxpu=1.5 vminpu=0.92 daily="RU6_DU"
 !28_4271
New "Load.BT_2805797_M1" bus1="UC2805797.2.4" phases=1 conn=Wye model=2 kv=0.220 kw = 0.0997131 pf=0.92 status=variable vmaxpu=1.5 vminpu=0.92 daily="RU8_DU" 
New "Load.BT_2805797_M2" bus1="UC2805797.2.4" phases=1 conn=Wye model=3 kv=0.220 kw = 0.0997131 pf=0.92 status=variable vmaxpu=1.5 vminpu=0.92 daily="RU8_DU"
 !28_6069
New "Load.BT_2830104_M1" bus1="UC2830104.1.4" phases=1 conn=Wye model=2 kv=0.220 kw = 0.0000000 pf=0.92 status=variable vmaxpu=1.5 vminpu=0.92 daily="RU5_DU" 
New "Load.BT_2830104_M2" bus1="UC2830104.1.4" phases=1 conn=Wye model=3 kv=0.220 kw = 0.0000000 pf=0.92 status=variable vmaxpu=1.5 vminpu=0.92 daily="RU5_DU"
 !28_1767
New "Load.BT_2805238_M1" bus1="UC2805238.1.4" phases=1 conn=Wye model=2 kv=0.220 kw = 0.1816316 pf=0.92 status=variable vmaxpu=1.5 vminpu=0.92 daily="RU6_DU" 
New "Load.BT_2805238_M2" bus1="UC2805238.1.4" phases=1 conn=Wye model=3 kv=0.220 kw = 0.1816316 pf=0.92 status=variable vmaxpu=1.5 vminpu=0.92 daily="RU6_DU"
 !28_2412
New "Load.BT_2836305_M1" bus1="UC2836305.3.4" phases=1 conn=Wye model=2 kv=0.219 kw = 0.3707642 pf=0.92 status=variable vmaxpu=1.5 vminpu=0.92 daily="RU8_DU" 
New "Load.BT_2836305_M2" bus1="UC2836305.3.4" phases=1 conn=Wye model=3 kv=0.219 kw = 0.3707642 pf=0.92 status=variable vmaxpu=1.5 vminpu=0.92 daily="RU8_DU"
 !28_5513
New "Load.BT_2805300_M1" bus1="UC2805300.1.2.3.4" phases=3 conn=Delta model=2 kv=0.380 kw = 0.7496971 pf=0.92 status=variable vmaxpu=1.5 vminpu=0.92 daily="CO3_DU" 
New "Load.BT_2805300_M2" bus1="UC2805300.1.2.3.4" phases=3 conn=Delta model=3 kv=0.380 kw = 0.7496971 pf=0.92 status=variable vmaxpu=1.5 vminpu=0.92 daily="CO3_DU"
 !28_3696
New "Load.BT_2832702_M1" bus1="UC2832702.2.4" phases=1 conn=Wye model=2 kv=0.219 kw = 0.1752834 pf=0.92 status=variable vmaxpu=1.5 vminpu=0.92 daily="RU7_DU" 
New "Load.BT_2832702_M2" bus1="UC2832702.2.4" phases=1 conn=Wye model=3 kv=0.219 kw = 0.1752834 pf=0.92 status=variable vmaxpu=1.5 vminpu=0.92 daily="RU7_DU"
 !28_694
New "Load.BT_2821297_M1" bus1="UC2821297.2.4" phases=1 conn=Wye model=2 kv=0.220 kw = 0.3416944 pf=0.92 status=variable vmaxpu=1.5 vminpu=0.92 daily="RU6_DU" 
New "Load.BT_2821297_M2" bus1="UC2821297.2.4" phases=1 conn=Wye model=3 kv=0.220 kw = 0.3416944 pf=0.92 status=variable vmaxpu=1.5 vminpu=0.92 daily="RU6_DU"
 !28_2316
New "Load.BT_2833919_M1" bus1="UC2833919.1.2.3.4" phases=3 conn=Delta model=2 kv=0.380 kw = 0.1216076 pf=0.92 status=variable vmaxpu=1.5 vminpu=0.92 daily="RU4_DU" 
New "Load.BT_2833919_M2" bus1="UC2833919.1.2.3.4" phases=3 conn=Delta model=3 kv=0.380 kw = 0.1216076 pf=0.92 status=variable vmaxpu=1.5 vminpu=0.92 daily="RU4_DU"
 !28_5398
New "Load.BT_2805256_M1" bus1="UC2805256.1.2.4" phases=1 conn=Delta model=2 kv=0.380 kw = 0.5645728 pf=0.92 status=variable vmaxpu=1.5 vminpu=0.92 daily="RU8_DU" 
New "Load.BT_2805256_M2" bus1="UC2805256.1.2.4" phases=1 conn=Delta model=3 kv=0.380 kw = 0.5645728 pf=0.92 status=variable vmaxpu=1.5 vminpu=0.92 daily="RU8_DU"
 !28_3949
New "Load.BT_2821023_M1" bus1="UC2821023.1.4" phases=1 conn=Wye model=2 kv=0.220 kw = 0.2061559 pf=0.92 status=variable vmaxpu=1.5 vminpu=0.92 daily="RU1_DU" 
New "Load.BT_2821023_M2" bus1="UC2821023.1.4" phases=1 conn=Wye model=3 kv=0.220 kw = 0.2061559 pf=0.92 status=variable vmaxpu=1.5 vminpu=0.92 daily="RU1_DU"
 !28_627
New "Load.BT_2805359_M1" bus1="UC2805359.1.4" phases=1 conn=Wye model=2 kv=0.220 kw = 0.3386120 pf=0.92 status=variable vmaxpu=1.5 vminpu=0.92 daily="RU5_DU" 
New "Load.BT_2805359_M2" bus1="UC2805359.1.4" phases=1 conn=Wye model=3 kv=0.220 kw = 0.3386120 pf=0.92 status=variable vmaxpu=1.5 vminpu=0.92 daily="RU5_DU"
 !28_697
New "Load.BT_2831931_M1" bus1="UC2831931.1.4" phases=1 conn=Wye model=2 kv=0.220 kw = 0.3412716 pf=0.92 status=variable vmaxpu=1.5 vminpu=0.92 daily="RU8_DU" 
New "Load.BT_2831931_M2" bus1="UC2831931.1.4" phases=1 conn=Wye model=3 kv=0.220 kw = 0.3412716 pf=0.92 status=variable vmaxpu=1.5 vminpu=0.92 daily="RU8_DU"
 !28_695
New "Load.BT_2805222_M1" bus1="UC2805222.1.4" phases=1 conn=Wye model=2 kv=0.220 kw = 0.0000000 pf=0.92 status=variable vmaxpu=1.5 vminpu=0.92 daily="CO6_DU" 
New "Load.BT_2805222_M2" bus1="UC2805222.1.4" phases=1 conn=Wye model=3 kv=0.220 kw = 0.0000000 pf=0.92 status=variable vmaxpu=1.5 vminpu=0.92 daily="CO6_DU"
 !28_628
New "Load.BT_2817029_M1" bus1="UC2817029.2.4" phases=1 conn=Wye model=2 kv=0.219 kw = 0.3089196 pf=0.92 status=variable vmaxpu=1.5 vminpu=0.92 daily="RE3_DU" 
New "Load.BT_2817029_M2" bus1="UC2817029.2.4" phases=1 conn=Wye model=3 kv=0.219 kw = 0.3089196 pf=0.92 status=variable vmaxpu=1.5 vminpu=0.92 daily="RE3_DU"
 !28_1990
New "Load.BT_2831803_M1" bus1="UC2831803.2.4" phases=1 conn=Wye model=2 kv=0.220 kw = 0.0118642 pf=0.92 status=variable vmaxpu=1.5 vminpu=0.92 daily="RU4_DU" 
New "Load.BT_2831803_M2" bus1="UC2831803.2.4" phases=1 conn=Wye model=3 kv=0.220 kw = 0.0118642 pf=0.92 status=variable vmaxpu=1.5 vminpu=0.92 daily="RU4_DU"
 !28_629
New "Load.BT_2833913_M1" bus1="UC2833913.1.2.4" phases=1 conn=Delta model=2 kv=0.440 kw = 0.0316005 pf=0.92 status=variable vmaxpu=1.5 vminpu=0.92 daily="RU1_DU" 
New "Load.BT_2833913_M2" bus1="UC2833913.1.2.4" phases=1 conn=Delta model=3 kv=0.440 kw = 0.0316005 pf=0.92 status=variable vmaxpu=1.5 vminpu=0.92 daily="RU1_DU"
 !28_5205
New "Load.BT_2837580_M1" bus1="UC2837580.1.4" phases=1 conn=Wye model=2 kv=0.220 kw = 0.1396466 pf=0.92 status=variable vmaxpu=1.5 vminpu=0.92 daily="RU5_DU" 
New "Load.BT_2837580_M2" bus1="UC2837580.1.4" phases=1 conn=Wye model=3 kv=0.220 kw = 0.1396466 pf=0.92 status=variable vmaxpu=1.5 vminpu=0.92 daily="RU5_DU"
 !28_4047
New "Load.BT_2806092_M1" bus1="UC2806092.2.4" phases=1 conn=Wye model=2 kv=0.220 kw = 0.3450491 pf=0.92 status=variable vmaxpu=1.5 vminpu=0.92 daily="RU4_DU" 
New "Load.BT_2806092_M2" bus1="UC2806092.2.4" phases=1 conn=Wye model=3 kv=0.220 kw = 0.3450491 pf=0.92 status=variable vmaxpu=1.5 vminpu=0.92 daily="RU4_DU"
 !2_1955
New "Load.BT_2817032_M1" bus1="UC2817032.1.4" phases=1 conn=Wye model=2 kv=0.220 kw = 0.1545796 pf=0.92 status=variable vmaxpu=1.5 vminpu=0.92 daily="RU2_DU" 
New "Load.BT_2817032_M2" bus1="UC2817032.1.4" phases=1 conn=Wye model=3 kv=0.220 kw = 0.1545796 pf=0.92 status=variable vmaxpu=1.5 vminpu=0.92 daily="RU2_DU"
 !28_632

New "Load.BT_2833911_M1" bus1="UC2833911.1.4" phases=1 conn=Wye model=2 kv=0.219 kw = 0.0019926 pf=0.92 status=variable vmaxpu=1.5 vminpu=0.92 daily="CO2_DU" 
New "Load.BT_2833911_M2" bus1="UC2833911.1.4" phases=1 conn=Wye model=3 kv=0.219 kw = 0.0019926 pf=0.92 status=variable vmaxpu=1.5 vminpu=0.92 daily="CO2_DU"
 !28_3696
...